# Packages
 &PACKAGES
 useCAL         = .TRUE.,
 useEXF         = .TRUE.,
 useSEAICE      = .TRUE.,
 useKPP         = .TRUE.,
 useGMREDI      = .TRUE.,
 useFRAZIL      = .TRUE.,
# useTIDES       = .TRUE.,
 useOBSFIT      = .TRUE.,
 useECCO        = .TRUE.,
# useDiagnostics = .TRUE.,
 /
