#
# *******************
# Calendar Parameters
# *******************
 &CAL_NML
 TheCalendar='gregorian',
 startDate_1=20240104,
 startDate_2=000000,
 calendarDumps = .TRUE.,
 &
