# Packages
 &PACKAGES
 useCAL         = .TRUE.,
 useEXF         = .TRUE.,
 useSEAICE      = .TRUE.,
 useKPP         = .TRUE.,
 useGMREDI      = .TRUE.,
 useFRAZIL      = .TRUE.,

# useDiagnostics = .TRUE.,

 useCTRL        = .TRUE.,
 useECCO        = .TRUE.,
 useAUTODIFF    = .TRUE.,
 /
